GridLAB-D/Modified 6-Node IM Case/GLD Results/test_assets_curr.csv
# test_assets_curr.csv run at 2000-01-01 00:00:00 EST on 27 links
link_name,currA_mag,currA_angle,currB_mag,currB_angle,currC_mag,currC_angle
overhead_line:10,389.340763,-0.647821,382.851860,3.554892,396.069145,1.469769
transformer:12,390.472144,-0.651345,383.505801,3.559213,394.306790,1.469137
overhead_line:14,1213.894174,-1.157398,1130.735298,3.037539,1157.272117,0.926162
overhead_line:17,123.191721,-1.129785,127.328429,2.964731,113.416287,0.801666
overhead_line:19,123.216671,-1.171574,112.692282,3.037676,117.650689,0.930221
xmf_node_5,5.148238,0.424962,17.045025,2.461974,15.432005,-0.982220
swt_node_5_im,44.618065,0.424962,147.723546,2.461974,133.744043,-0.982220
